LAMMPS (14 May 2021)
# 3d Lennard-Jones NVT

#NOTE: the variable "rho" is read from the command line argument:
#  E.G., "lmp_serial -in foo -var rho bar"
#  foo = input filename
#  bar = input value for variable rho

#Essential definitions
units           lj                                      #Units type: Lennard-Jones
atom_style      atomic                                  #Atom Style: Atoms

#Run Parameters
variable        ext_temp equal 1.50                     #Specify the thermostat Temperature
variable        Nevery equal 20                         #Specify the distance (in timesteps) between samples for computing ensemble averages
                                                        #  (Interval between samples in a block)
variable        Nrepeat equal 50                        #Specify the number of samples per output  of thermodynamic averages
                                                        #  (Samples per block output)
variable        Nfreq equal 20*50
                                                        #  (Some people call these blocks)
variable        nrun equal 1000000                      #Specify the MD run length (in timesteps
variable        Tdamp equal 0.500                       #Specify the Thermostat damping parameter (in time units ; not timesteps)
variable        cfg_seed equal 45232                    #Seed integer for generating the initial, random configuration
variable        vel_seed equal 87287                    #Seed integer for generating the initial, random velocities

#System Size: Set Nmols and density, get volume
variable        Nmols equal 100                         #Specify number of LJ molecules
variable        density equal 0.001
variable        L equal (100/0.001)^(1.0/3.0)
                                                        #Cubic system dimensions selected based on Nmols and density

#System Volume
boundary        p p p                                   #Specify Periodic boundary conditions at all system boundaries
region          box block 0.0 46.4158883361278 0.0 46.4158883361278 0.0 46.4158883361278
create_box      1 box                                   #Create the box
Created orthogonal box = (0.0000000 0.0000000 0.0000000) to (46.415888 46.415888 46.415888)
create_atoms    1 random 100 45232 NULL
Created 100 atoms

#Molecular Model
# NOTE: This block must be after the "System Volume" section
pair_style      lj/cut 3.5                              #Pair potential is Lennard-Jones
                                                        #  Truncation radius is 3.5sigma
pair_coeff      1 1 1.0 1.0                             #Pure Lennard-Jones, use sigma=1, epsilon=1
mass            1 1.0                                   #Pure Lennard-Jones, use mass=1

#Neighbor List
neighbor        0.3 bin                                 #Specify the skin distance (padding beyond the cutoff)
neigh_modify    delay 0 every 20 check no               #Adjust the default neighbor list:
                                                        #  (delay 0)
                                                        #  (every 20)
                                                        #  (check no)
#Initial Velocities
velocity        all create 1.5 87287 loop geom
                                                        #Create an initial velocity distribution using the specified
                                                        #  external temperature

#Relax the initial configuration
minimize        1.0E-4 1.0E-6 1000 100000               #Relax the initial configuration and velocities
  update every 1 steps, delay 0 steps, check yes
Step Temp E_pair E_mol TotEng Press
0          1.5 -0.00037389345            0    2.2271261 0.0014842543
Loop time of 0.00134562 on 8 procs for 21 steps with 100 atoms

Minimization stats:
  Stopping criterion = energy tolerance
  Energy initial, next-to-last, final =
  Force two-norm initial, final = 0.066626694 0.070588948
  Force max component initial, final = 0.034157681 0.031252951
  Final line search alpha, max atom move = 1.0000000 0.031252951
  Iterations, force evaluations = 21 53

                                                        #  Energy tolerance = 1.0E-4
                                                        #  Force tolerance = 1.0E-6
                                                        #  Maximum number of iterations = 1000
                                                        #  Maximum number of force/energy evaluations = 100000

#Ensemble Setup
fix		1 all nvt temp 1.5 1.5 0.5
# Previous line specifies: NVT ensemble, thermostatted by Nose-Hoover a chained thermostat, set at temperature $ext_temp

#Output
variable        PotentialEnergy equal epair             #Call the intermolecular potential energy $epair
variable        Pressure equal press                    #Call the pressure $press
variable        Temperature equal temp                  #Call the instantaneous temperature $temp
fix             2 all ave/time 20 50 1000 v_Temperature v_PotentialEnergy v_Pressure file out/ave.dens_0.001.out
thermo          10000                                   #Specify the interval between screen output of thermodynamic averages
thermo_style    custom step temp epair press            #Format for screen output of thermodynamics
                                                        #  (MD step, temperature, potential energy, pressure)

#Run it!
run             1000000
Step Temp E_pair Press
21          1.5 -0.020168748 0.0014844276
Averages over the last 51 of 102 rows, steps 510000 to 1000021:
Temp E_pair Press
1.49047 -0.00708252 0.00147012
Loop time of 12.6494 on 8 procs for 1000000 steps with 100 atoms

write_restart   restart/in.nvt.dens_0.001
System init for write_restart ...
